&atmos_model_nml
  blocksize = @[BLOCKSIZE]
  chksum_debug = .false.
  dycore_only = .false.
  ccpp_suite = '@[CCPP_SUITE]'
/

&diag_manager_nml
  prepend_date = .false.
  max_output_fields = @[MAX_OUTPUT_FIELDS]
/

&fms_nml
  clock_grain = 'ROUTINE'
  domains_stack_size = @[DOMAINS_STACK_SIZE]
  print_memory_usage = .false.
/

&fms2_io_nml
  netcdf_default_format = "netcdf4"
/

&fv_core_nml
  layout = @[INPES],@[JNPES]
  io_layout = 1,1
  npx = @[NPX]
  npy = @[NPY]
  ntiles = 6
  npz = @[NPZ]
  grid_type = -1
  make_nh = @[MAKE_NH]
  fv_debug = .false.
  range_warn = .false.
  reset_eta = .false.
  n_sponge = @[N_SPONGE]
  nudge_qv = .true.
  nudge_dz = .false.
  tau = 10.
  rf_cutoff = 7.5e2
  d2_bg_k1 = 0.20
  d2_bg_k2 = 0.0
  kord_tm = -9
  kord_mt = 9
  kord_wz = 9
  kord_tr = 9
  hydrostatic = .false.
  phys_hydrostatic = .false.
  use_hydro_pressure = .false.
  beta = 0.
  a_imp = 1.
  p_fac = 0.1
  k_split = 2
  n_split = 6
  nwat = 6
  na_init = @[NA_INIT]
  d_ext = 0.
  dnats = @[DNATS]
  fv_sg_adj = 450
  d2_bg = 0.
  nord = 2
  dddmp = 0.1
  d4_bg = 0.12
  vtdm4 = 0.02
  delt_max = 0.002
  ke_bg = 0.
  do_vort_damp = .true.
  external_ic = @[EXTERNAL_IC]
  external_eta = .true.
  gfs_phil = .false.
  nggps_ic = @[NGGPS_IC]
  mountain = @[MOUNTAIN]
  ncep_ic = .false.
  d_con = 1.
  hord_mt = 5
  hord_vt = 5
  hord_tm = 5
  hord_dp = -5
  hord_tr = 8
  adjust_dry_mass = .false.
  consv_te = 1.
  do_sat_adj = .false.
  consv_am = .false.
  fill = .true.
  dwind_2d = .false.
  print_freq = 6
  warm_start = @[WARM_START]
  no_dycore = .false.
  z_tracer = .true.
  agrid_vel_rst = .true.
  read_increment = @[READ_INCREMENT]
  res_latlon_dynamics = @[RES_LATLON_DYNAMICS]
  increment_file_on_native_grid = @[INCREMENT_FILE_ON_NATIVE_GRID]
/

&external_ic_nml
  filtered_terrain = .true.
  levp = @[NPZP]
  gfs_dwinds = .true.
  checker_tr = .false.
  nt_checker = 0
/

&gfs_physics_nml
  fhzero       = @[FHZERO]
  h2o_phys     = .true.
  ldiag3d      = @[LDIAG3D]
  qdiag3d      = @[QDIAG3D]
  print_diff_pgr = @[PRINT_DIFF_PGR]
  fhcyc        = @[FHCYC]
  use_ufo      = .true.
  pre_rad      = .false.
  imp_physics  = 11
  min_lakeice  = @[MIN_LAKEICE]
  min_seaice   = @[MIN_SEAICE]
  use_cice_alb = @[USE_CICE_ALB]
  pdfcld       = .false.
  fhswr        = 3600.
  fhlwr        = 3600.
  ialb         = 1
  iems         = 1
  iaer         = @[IAER]
  icliq_sw     = 2
  iovr         = @[IOVR]
  ico2         = 2
  isubc_sw     = 2
  isubc_lw     = 2
  isol         = 2
  lwhtr        = .true.
  swhtr        = .true.
  cnvgwd       = .true.
  shal_cnv     = .true.
  cal_pre      = .false.
  redrag       = .true.
  dspheat      = .true.
  hybedmf      = .false.
  satmedmf     = .true.
  isatmedmf    = 1
  lheatstrg    = @[LHEATSTRG]
  lseaspray    = @[LSEASPRAY]
  random_clds  = @[RANDOM_CLDS]
  trans_trac   = .true.
  cnvcld       = @[CNVCLD]
  imfshalcnv   = @[IMFSHALCNV]
  imfdeepcnv   = @[IMFDEEPCNV]
  ras          = @[RAS]
  cdmbgwd      = @[CDMBGWD]
  prslrd0      = 0.
  ivegsrc      = 1
  isot         = 1
  lsoil        = 4
  lsm          = 1
  iopt_dveg    = 1
  iopt_crs     = 1
  iopt_btr     = 1
  iopt_run     = 1
  iopt_sfc     = 1
  iopt_frz     = 1
  iopt_inf     = 1
  iopt_rad     = 1
  iopt_alb     = 2
  iopt_snf     = 4
  iopt_tbot    = 2
  iopt_stc     = 1
  iopt_trs     = 2
  iopt_diag    = 2
  debug        = .false.
  oz_phys      = .false.
  oz_phys_2015 = .true.
  nstf_name    = 2,0,0,0,0
  nst_anl      = .true.
  psautco      = 0.0008,0.0005
  prautco      = 0.00015,0.00015
  lgfdlmprad   = .true.
  cplchm       = @[CPLCHM]
  cplflx       = @[CPLFLX]
  cplice       = @[CPLICE]
  cplwav       = @[CPLWAV]
  cplwav2atm   = @[CPLWAV2ATM]
  cpllnd       = @[CPLLND]
  cpllnd2atm   = @[CPLLND2ATM]
  effr_in      = .true.
  ldiag_ugwp   = .false.
  do_ugwp      = .false.
  do_tofd      = .true.
  do_sppt      = @[DO_SPPT]
  do_shum      = @[DO_SHUM]
  do_skeb      = @[DO_SKEB]
  lndp_type    = @[LNDP_TYPE]
  n_var_lndp   = @[N_VAR_LNDP]
  fscav_aero   = @[FSCAV_AERO]
  do_RRTMGP          = @[DO_RRTMGP]
  active_gases       = 'h2o_co2_o3_n2o_ch4_o2'
  ngases             = 6
  lw_file_gas        = 'rrtmgp-data-lw-g128-210809.nc'
  lw_file_clouds     = 'rrtmgp-cloud-optics-coeffs-lw.nc'
  sw_file_gas        = 'rrtmgp-data-sw-g112-210809.nc'
  sw_file_clouds     = 'rrtmgp-cloud-optics-coeffs-sw.nc'
  rrtmgp_nGptsSW     = 112
  rrtmgp_nGptsLW     = 128
  rrtmgp_nBandsLW    = 16
  rrtmgp_nBandsSW    = 14
  rrtmgp_lw_phys_blksz = 16
  doGP_cldoptics_LUT = @[DOGP_CLDOPTICS_LUT]
  doGP_lwscat        = @[DOGP_LWSCAT]
  progsigma    = @[PROGSIGMA]
  frac_grid    = @[FRAC_GRID]
/

&gfdl_cloud_microphysics_nml
  sedi_transport = .true.
  do_sedi_heat = .false.
  rad_snow = .true.
  rad_graupel = .true.
  rad_rain = .true.
  const_vi = .false.
  const_vs = .false.
  const_vg = .false.
  const_vr = .false.
  vi_max = 1.
  vs_max = 2.
  vg_max = 12.
  vr_max = 12.
  qi_lim = 1.
  prog_ccn = .false.
  do_qa = .true.
  fast_sat_adj = .false.
  tau_l2v = 225.
  tau_v2l = 150.
  tau_g2v = 900.
  rthresh = 10.e-6  ! This is a key parameter for cloud water
  dw_land  = 0.16
  dw_ocean = 0.10
  ql_gen = 1.0e-3
  ql_mlt = 1.0e-3
  qi0_crt = 8.0E-5
  qs0_crt = 1.0e-3
  tau_i2s = 1000.
  c_psaci = 0.05
  c_pgacs = 0.01
  rh_inc = 0.30
  rh_inr = 0.30
  rh_ins = 0.30
  ccn_l = 300.
  ccn_o = 100.
  c_paut = 0.5
  c_cracw = 0.8
  use_ppm = .false.
  use_ccn = .true.
  mono_prof = .true.
  z_slope_liq  = .true.
  z_slope_ice  = .true.
  de_ice = .false.
  fix_negative = .true.
  icloud_f = 1
  mp_time = 150.
  reiflag = 2
/

&interpolator_nml
  interp_method = 'conserve_great_circle'
/

&namsfc
  FNGLAC   = @[FNGLAC]
  FNMXIC   = @[FNMXIC]
  FNTSFC   = @[FNTSFC]
  FNSNOC   = @[FNSNOC]
  FNZORC   = @[FNZORC]
  FNALBC   = @[FNALBC]
  FNALBC2  = @[FNALBC2]
  FNAISC   = @[FNAISC]
  FNTG3C   = @[FNTG3C]
  FNVEGC   = @[FNVEGC]
  FNVETC   = @[FNVETC]
  FNSOTC   = @[FNSOTC]
  FNSOCC   = @[FNSOCC]
  FNSMCC   = @[FNSMCC]
  FNMSKH   = @[FNMSKH]
  FNTSFA   = ''
  FNACNA   = ''
  FNSNOA   = ''
  FNVMNC   = @[FNVMNC]
  FNVMXC   = @[FNVMXC]
  FNSLPC   = @[FNSLPC]
  FNABSC   = @[FNABSC]
  LDEBUG   = @[LDEBUG]
  FSMCL(2) = 99999
  FSMCL(3) = 99999
  FSMCL(4) = 99999
  LANDICE  = @[LANDICE]
  FTSFS    = @[FTSFS]
  FAISL    = 99999
  FAISS    = 99999
  FSNOL    = 99999
  FSNOS    = 99999
  FSICL    = @[FSICL]
  FSICS    = @[FSICS]
  FTSFL    = 99999
  FVETL    = 99999
  FSOTL    = 99999
  FvmnL    = 99999
  FvmxL    = 99999
  FSLPL    = 99999
  FABSL    = 99999
/

&fv_grid_nml
  grid_file = 'INPUT/grid_spec.nc'
/

&MOM_input_nml
  output_directory = '@[MOM6_OUTPUT_DIR]',
  input_filename = '@[MOM6_RESTART_SETTING]'
  restart_input_dir = 'INPUT/',
  restart_output_dir = '@[MOM6_RESTART_DIR]'
  parameter_filename = 'INPUT/MOM_input','INPUT/MOM_override'/
